Input Parameters:
   integrator                     = md
   tinit                          = 0
   dt                             = 0.0001
   nsteps                         = 1000000
   init-step                      = 0
   simulation-part                = 1
   mts                            = false
   comm-mode                      = Linear
   nstcomm                        = 100
   bd-fric                        = 0
   ld-seed                        = -67141633
   emtol                          = 10
   emstep                         = 0.01
   niter                          = 20
   fcstep                         = 0
   nstcgsteep                     = 1000
   nbfgscorr                      = 10
   rtpi                           = 0.05
   nstxout                        = 0
   nstvout                        = 0
   nstfout                        = 0
   nstlog                         = 0
   nstcalcenergy                  = 1
   nstenergy                      = 0
   nstxout-compressed             = 0
   compressed-x-precision         = 1000
   cutoff-scheme                  = Verlet
   nstlist                        = 30
   pbc                            = xyz
   periodic-molecules             = false
   verlet-buffer-tolerance        = 0.0002
   rlist                          = 1.005
   coulombtype                    = PME
   coulomb-modifier               = None
   rcoulomb-switch                = 0
   rcoulomb                       = 1
   epsilon-r                      = 1
   epsilon-rf                     = inf
   vdw-type                       = Cut-off
   vdw-modifier                   = Potential-shift
   rvdw-switch                    = 0
   rvdw                           = 1
   DispCorr                       = EnerPres
   table-extension                = 1
   fourierspacing                 = 0.12
   fourier-nx                     = 80
   fourier-ny                     = 80
   fourier-nz                     = 80
   pme-order                      = 5
   ewald-rtol                     = 1e-05
   ewald-rtol-lj                  = 0.001
   lj-pme-comb-rule               = Geometric
   ewald-geometry                 = 0
   epsilon-surface                = 0
   tcoupl                         = V-rescale
   nsttcouple                     = 10
   nh-chain-length                = 0
   print-nose-hoover-chain-variables = false
   pcoupl                         = No
   pcoupltype                     = Isotropic
   nstpcouple                     = -1
   tau-p                          = 40
   compressibility (3x3):
      compressibility[    0]={ 0.00000e+00,  0.00000e+00,  0.00000e+00}
      compressibility[    1]={ 0.00000e+00,  0.00000e+00,  0.00000e+00}
      compressibility[    2]={ 0.00000e+00,  0.00000e+00,  0.00000e+00}
   ref-p (3x3):
      ref-p[    0]={ 0.00000e+00,  0.00000e+00,  0.00000e+00}
      ref-p[    1]={ 0.00000e+00,  0.00000e+00,  0.00000e+00}
      ref-p[    2]={ 0.00000e+00,  0.00000e+00,  0.00000e+00}
   refcoord-scaling               = All
   posres-com (3):
      posres-com[0]= 0.00000e+00
      posres-com[1]= 0.00000e+00
      posres-com[2]= 0.00000e+00
   posres-comB (3):
      posres-comB[0]= 0.00000e+00
      posres-comB[1]= 0.00000e+00
      posres-comB[2]= 0.00000e+00
   QMMM                           = false
qm-opts:
   ngQM                           = 0
   constraint-algorithm           = Lincs
   continuation                   = false
   Shake-SOR                      = false
   shake-tol                      = 0.0001
   lincs-order                    = 4
   lincs-iter                     = 1
   lincs-warnangle                = 30
   nwall                          = 0
   wall-type                      = 9-3
   wall-r-linpot                  = -1
   wall-atomtype[0]               = -1
   wall-atomtype[1]               = -1
   wall-density[0]                = 0
   wall-density[1]                = 0
   wall-ewald-zfac                = 3
   pull                           = false
   awh                            = false
   rotation                       = false
   interactiveMD                  = false
   disre                          = No
   disre-weighting                = Conservative
   disre-mixed                    = false
   dr-fc                          = 1000
   dr-tau                         = 0
   nstdisreout                    = 100
   orire-fc                       = 0
   orire-tau                      = 0
   nstorireout                    = 100
   free-energy                    = yes
   init-lambda                    = -1
   init-lambda-state              = 25
   delta-lambda                   = 0
   nstdhdl                        = 0
   n-lambdas                      = 51
   separate-dvdl:
       fep-lambdas =   TRUE
      mass-lambdas =   FALSE
      coul-lambdas =   FALSE
       vdw-lambdas =   FALSE
    bonded-lambdas =   FALSE
 restraint-lambdas =   FALSE
temperature-lambdas =   FALSE
all-lambdas:
       fep-lambdas =            0        0.02        0.04        0.06        0.08         0.1        0.12        0.14        0.16        0.18         0.2        0.22        0.24        0.26        0.28         0.3        0.32        0.34        0.36        0.38         0.4        0.42        0.44        0.46        0.48         0.5        0.52        0.54        0.56        0.58         0.6        0.62        0.64        0.66        0.68         0.7        0.72        0.74        0.76        0.78         0.8        0.82        0.84        0.86        0.88         0.9        0.92        0.94        0.96        0.98           1
      mass-lambdas =            0        0.02        0.04        0.06        0.08         0.1        0.12        0.14        0.16        0.18         0.2        0.22        0.24        0.26        0.28         0.3        0.32        0.34        0.36        0.38         0.4        0.42        0.44        0.46        0.48         0.5        0.52        0.54        0.56        0.58         0.6        0.62        0.64        0.66        0.68         0.7        0.72        0.74        0.76        0.78         0.8        0.82        0.84        0.86        0.88         0.9        0.92        0.94        0.96        0.98           1
      coul-lambdas =            0        0.02        0.04        0.06        0.08         0.1        0.12        0.14        0.16        0.18         0.2        0.22        0.24        0.26        0.28         0.3        0.32        0.34        0.36        0.38         0.4        0.42        0.44        0.46        0.48         0.5        0.52        0.54        0.56        0.58         0.6        0.62        0.64        0.66        0.68         0.7        0.72        0.74        0.76        0.78         0.8        0.82        0.84        0.86        0.88         0.9        0.92        0.94        0.96        0.98           1
       vdw-lambdas =            0        0.02        0.04        0.06        0.08         0.1        0.12        0.14        0.16        0.18         0.2        0.22        0.24        0.26        0.28         0.3        0.32        0.34        0.36        0.38         0.4        0.42        0.44        0.46        0.48         0.5        0.52        0.54        0.56        0.58         0.6        0.62        0.64        0.66        0.68         0.7        0.72        0.74        0.76        0.78         0.8        0.82        0.84        0.86        0.88         0.9        0.92        0.94        0.96        0.98           1
    bonded-lambdas =            0        0.02        0.04        0.06        0.08         0.1        0.12        0.14        0.16        0.18         0.2        0.22        0.24        0.26        0.28         0.3        0.32        0.34        0.36        0.38         0.4        0.42        0.44        0.46        0.48         0.5        0.52        0.54        0.56        0.58         0.6        0.62        0.64        0.66        0.68         0.7        0.72        0.74        0.76        0.78         0.8        0.82        0.84        0.86        0.88         0.9        0.92        0.94        0.96        0.98           1
 restraint-lambdas =            0        0.02        0.04        0.06        0.08         0.1        0.12        0.14        0.16        0.18         0.2        0.22        0.24        0.26        0.28         0.3        0.32        0.34        0.36        0.38         0.4        0.42        0.44        0.46        0.48         0.5        0.52        0.54        0.56        0.58         0.6        0.62        0.64        0.66        0.68         0.7        0.72        0.74        0.76        0.78         0.8        0.82        0.84        0.86        0.88         0.9        0.92        0.94        0.96        0.98           1
temperature-lambdas =            0        0.02        0.04        0.06        0.08         0.1        0.12        0.14        0.16        0.18         0.2        0.22        0.24        0.26        0.28         0.3        0.32        0.34        0.36        0.38         0.4        0.42        0.44        0.46        0.48         0.5        0.52        0.54        0.56        0.58         0.6        0.62        0.64        0.66        0.68         0.7        0.72        0.74        0.76        0.78         0.8        0.82        0.84        0.86        0.88         0.9        0.92        0.94        0.96        0.98           1
   calc-lambda-neighbors          = 0
   dhdl-print-energy              = no
   sc-alpha                       = 0
   sc-power                       = 1
   sc-r-power                     = 6
   sc-sigma                       = 0.3
   sc-sigma-min                   = 0.3
   sc-coul                        = false
   dh-hist-size                   = 0
   dh-hist-spacing                = 0.1
   separate-dhdl-file             = yes
   dhdl-derivatives               = no
   cos-acceleration               = 0
   deform (3x3):
      deform[    0]={ 0.00000e+00,  0.00000e+00,  0.00000e+00}
      deform[    1]={ 0.00000e+00,  0.00000e+00,  0.00000e+00}
      deform[    2]={ 0.00000e+00,  0.00000e+00,  0.00000e+00}
   simulated-tempering            = false
   swapcoords                     = no
   userint1                       = 0
   userint2                       = 0
   userint3                       = 0
   userint4                       = 0
   userreal1                      = 0
   userreal2                      = 0
   userreal3                      = 0
   userreal4                      = 0
   applied-forces:
     electric-field:
       x:
         E0                       = 0
         omega                    = 0
         t0                       = 0
         sigma                    = 0
       y:
         E0                       = 0
         omega                    = 0
         t0                       = 0
         sigma                    = 0
       z:
         E0                       = 0
         omega                    = 0
         t0                       = 0
         sigma                    = 0
     density-guided-simulation:
       active                     = false
       group                      = protein
       similarity-measure         = inner-product
       atom-spreading-weight      = unity
       force-constant             = 1e+09
       gaussian-transform-spreading-width = 0.2
       gaussian-transform-spreading-range-in-multiples-of-width = 4
       reference-density-filename = reference.mrc
       nst                        = 1
       normalize-densities        = true
       adaptive-force-scaling     = false
       adaptive-force-scaling-time-constant = 4
       shift-vector               =
       transformation-matrix      =
grpopts:
   nrdf:     6797.87      148320
   ref-t:         300         300
   tau-t:         0.1         0.1
annealing:          No          No
annealing-npoints:           0           0
   acc:	           0           0           0
   nfreeze:           N           N           N
   energygrp-flags[  0]: 0

Changing nstlist from 30 to 100, rlist from 1.005 to 1.029

Using 1 MPI thread
Using 16 OpenMP threads

Overriding thread affinity set outside gmx mdrun

Pinning threads with an auto-selected logical core stride of 8

NOTE: Thread affinity was not set.
System total charge, top. A: -0.000 top. B: -0.000
Will do PME sum in reciprocal space for electrostatic interactions.

Using a Gaussian width (1/beta) of 0.320163 nm for Ewald
Potential shift: LJ r^-12: -1.000e+00 r^-6: -1.000e+00, Ewald -0.000e+00
Initialized non-bonded Coulomb Ewald tables, spacing: 9.33e-04 size: 2176

Generated table with 1014 data points for 1-4 COUL.
Tabscale = 500 points/nm
Generated table with 1014 data points for 1-4 LJ6.
Tabscale = 500 points/nm
Generated table with 1014 data points for 1-4 LJ12.
Tabscale = 500 points/nm
Read user tables from table_b0.xvg with 2502 data points.
Tabscale = 500 points/nm

Long Range LJ corr.: <C6> 3.1123e-04

Using SIMD 4x8 nonbonded short-range kernels

Using a dual 4x8 pair-list setup updated with dynamic pruning:
  outer list: updated every 100 steps, buffer 0.029 nm, rlist 1.029 nm
  inner list: updated every   8 steps, buffer 0.001 nm, rlist 1.001 nm
At tolerance 0.0002 kJ/mol/ps per atom, equivalent classical 1x1 list would be:
  outer list: updated every 100 steps, buffer 0.046 nm, rlist 1.046 nm
  inner list: updated every   8 steps, buffer 0.002 nm, rlist 1.002 nm

Using geometric Lennard-Jones combination rule
There are 39 atoms and 39 charges for free energy perturbation
Removing pbc first time
Initial vector of lambda components:[     0.5000     0.5000     0.5000     0.5000     0.5000     0.5000     0.5000 ]

There are: 51707 Atoms
Center of mass motion removal mode is Linear
We have the following groups for center of mass motion removal:
  0:  rest
Initial temperature: 300.014 K

Started mdrun on rank 0 Mon Apr 29 13:30:23 2024

           Step           Time
              0        0.00000

   Energies (kJ/mol)
           Bond          Morse  Tab. Bonds NC Restraint Pot.          Angle
    8.54626e+04    1.23748e+03    1.96593e+02    3.08413e+00    4.80378e+04
    Proper Dih. Ryckaert-Bell.  Improper Dih.          LJ-14     Coulomb-14
    2.71949e+02    2.50241e+03    1.92036e+00    3.21816e+03    1.44256e+04
        LJ (SR)  Disper. corr.   Coulomb (SR)   Coul. recip.      Potential
    1.65957e+05   -6.83853e+03   -1.05011e+06    4.29498e+03   -7.31334e+05
    Kinetic En.   Total Energy  Conserved En.    Temperature Pres. DC (bar)
    1.93560e+05   -5.37774e+05   -5.37774e+05    3.00158e+02   -2.23318e+02
    2.38939e+01    3.08664e+02

	<====  A V E R A G E S  ====>

	Statistics over 1000001 steps using 1000001 frames

   Energies (kJ/mol)
           Bond          Morse  Tab. Bonds NC Restraint Pot.          Angle
    8.25403e+04    1.08115e+03    2.55305e+02    3.18410e-01    4.78747e+04
    Proper Dih. Ryckaert-Bell.  Improper Dih.          LJ-14     Coulomb-14
    2.67357e+02    2.41379e+03    6.50936e+00    3.13100e+03    1.43653e+04
        LJ (SR)  Disper. corr.   Coulomb (SR)   Coul. recip.      Potential
    1.63667e+05   -6.83853e+03   -1.04605e+06    4.33710e+03   -7.32948e+05
    Kinetic En.   Total Energy  Conserved En.    Temperature Pres. DC (bar)
    1.93548e+05   -5.39400e+05   -5.36441e+05    3.00140e+02   -2.23318e+02
 Pressure (bar)    dVremain/dl
   -5.62171e+01    1.89391e+02

   Total Virial (kJ/mol)
    6.54598e+04   -7.05608e+01    2.57450e+01
   -7.05609e+01    6.53029e+04    3.23135e+00
    2.57450e+01    3.23113e+00    6.53711e+04

   Pressure (bar)
   -5.95741e+01    4.85669e+00   -2.37567e+00
    4.85669e+00   -5.12714e+01    4.20262e+00
   -2.37567e+00    4.20264e+00   -5.78057e+01

      T-Protein  T-non-Protein
    3.00560e+02    3.00120e+02
